T42/data/state_estimation/PT_Dx_01_2050_Su_Bd/PT_Dx_01_2050_Su_Bd_t2.csv
bus,vm_pu,va_degree,p_mw,q_mvar
1,0.956483,-0.113268,-13.717564,-5.421481
2,1.000926,-0.000249,32.695086,13.699959
3,0.956776,-0.113594,0.000018,0.000032
4,0.956201,-0.114744,0.000003,-0.000002
5,0.957239,-0.115102,0.000072,0.000033
6,0.956199,-0.114074,-0.014315,-0.007302
7,0.953950,-0.115437,-0.050652,-0.025860
8,0.954180,-0.114461,-0.019802,-0.010236
9,0.954409,-0.115356,-1.269565,-0.650371
10,0.954144,-0.115621,-4.325267,-2.215909
11,0.954763,-0.114547,-0.984597,-0.504436
12,0.952923,-0.117296,-0.002990,-0.001422
13,0.954456,-0.114861,-0.024443,-0.009717
14,0.954776,-0.115434,-1.802157,-0.673410
15,0.951907,-0.116648,-0.017681,-0.009099
16,0.956000,-0.114071,-0.017302,-0.008854
17,0.955068,-0.115364,-0.006522,-0.003293
18,0.953286,-0.115767,-0.013031,-0.006711
19,0.953003,-0.117067,-0.049326,-0.025323
20,0.954825,-0.115406,-1.155865,-0.342253
21,0.952913,-0.116710,-0.001135,-0.000325
22,0.953873,-0.115877,-0.007771,-0.003034
23,0.952540,-0.115705,-0.081963,-0.041998
24,0.952872,-0.115998,-0.072571,-0.028738
25,0.953451,-0.116733,-0.009001,-0.003563
26,0.955995,-0.114954,-0.027296,-0.013946
27,0.954523,-0.114558,-0.008082,-0.004118
28,0.952098,-0.116207,-0.037367,-0.019152
29,0.955873,-0.115253,-0.039961,-0.020512
30,0.953826,-0.115807,-0.139340,-0.071337
31,0.953379,-0.114933,-0.032942,-0.016893
32,0.955057,-0.113748,-0.098875,-0.050597
33,0.955335,-0.115343,-1.050409,-0.288305
34,0.951984,-0.116337,-0.001649,-0.000761
35,0.953212,-0.116583,-0.005876,-0.002927
36,0.954936,-0.115049,-0.009772,-0.005029
37,0.955111,-0.114946,-0.003062,-0.001231
38,0.952037,-0.117160,-0.058534,-0.029924
39,0.954290,-0.115863,-0.182490,-0.093462
40,0.953010,-0.117275,-0.015651,-0.006201
41,0.952263,-0.116117,-0.015656,-0.006196
42,0.952769,-0.116449,-0.003678,-0.001963
43,0.953286,-0.116128,-0.093649,-0.047977
44,0.953358,-0.116575,-0.043663,-0.022455
45,0.953281,-0.116873,-0.001602,-0.000602
46,0.954068,-0.114299,-0.093897,-0.048025
47,0.953403,-0.116481,-0.438411,-0.224593
48,0.954823,-0.114439,-0.000604,-0.000272
49,0.954889,-0.114499,-0.056537,-0.028945
50,0.954387,-0.114935,-0.006230,-0.003273
51,0.955847,-0.114458,-0.017914,-0.007113
52,0.954648,-0.114677,-0.006469,-0.003319
53,0.951447,-0.116507,-0.181647,-0.093141
54,0.954256,-0.115632,-0.019945,-0.007918
55,0.955338,-0.114195,-0.043663,-0.022396
56,0.954622,-0.114973,-0.011312,-0.005880
57,0.954473,-0.114736,-0.009495,-0.004874
58,0.952482,-0.117283,-0.014867,-0.007759
59,0.953084,-0.117113,-0.027509,-0.010949
60,0.952829,-0.116037,-0.011819,-0.004669
61,0.954304,-0.115205,-1.174845,-0.352022
62,0.956541,-0.114196,-0.003048,-0.001555
63,0.953242,-0.116519,-0.000628,-0.000222
64,0.956053,-0.114473,-0.296057,-0.151687
65,0.956103,-0.114609,-1.041844,-0.283948
66,0.955006,-0.116117,-0.352866,-0.180738
67,0.955270,-0.114757,-0.035564,-0.018127
68,0.953042,-0.117000,-0.114032,-0.058329
69,0.953674,-0.114683,-0.020368,-0.007973
70,0.954847,-0.114769,-0.020640,-0.010592
71,0.952898,-0.116728,-0.009569,-0.004962
72,0.953552,-0.116151,-0.014630,-0.007562
73,0.952484,-0.116380,-0.011047,-0.004390
74,0.952914,-0.116361,-0.006628,-0.003525
75,0.953403,-0.115708,-0.077833,-0.039856
76,0.955190,-0.115391,-0.013770,-0.007063
77,0.955134,-0.114822,-0.017565,-0.008913
78,0.954521,-0.115157,-0.045284,-0.023314
79,0.954735,-0.113910,-0.155943,-0.079910
80,0.952378,-0.115289,-0.000052,-0.000051
81,0.952256,-0.116781,-0.000732,-0.000361
82,0.954577,-0.113854,-0.017821,-0.009144
83,0.954923,-0.114396,-0.012928,-0.006663
84,0.954057,-0.114705,-0.007052,-0.003646
85,0.951487,-0.116965,-0.021838,-0.011197
86,0.955876,-0.113938,-0.018549,-0.007210
87,0.955518,-0.114411,-0.014054,-0.007223
88,0.955689,-0.114273,-0.034059,-0.017527
89,0.955268,-0.115133,-0.282904,-0.144949
90,0.954611,-0.115613,-0.018858,-0.009702
91,0.952637,-0.116207,-0.045246,-0.023115
92,0.952389,-0.117303,-0.003890,-0.002024
93,0.954507,-0.115166,-0.044324,-0.022721
94,0.953169,-0.115847,-0.034731,-0.017845
95,0.956186,-0.113485,-0.159302,-0.081545
96,0.953096,-0.117198,-0.012652,-0.004958
97,0.951949,-0.116101,-0.025745,-0.013235
98,0.952337,-0.116644,-0.069681,-0.027579
99,0.954508,-0.114830,-0.781894,-0.150701
100,0.954402,-0.115696,-0.009366,-0.004811
101,0.954333,-0.114481,-0.058968,-0.023355
102,0.954575,-0.115020,-0.773503,-0.146436
103,0.955443,-0.115797,-0.029421,-0.011620
104,0.952562,-0.116930,-0.174125,-0.068777
105,0.955419,-0.113852,-0.001808,-0.000962
106,0.955349,-0.114879,0.000057,-0.000113
107,0.955963,-0.115250,0.000028,0.000023
108,0.953694,-0.113739,0.000037,-0.000012
109,0.954956,-0.115333,0.000078,0.000008
110,0.953043,-0.117061,-0.000014,-0.000043
111,0.952331,-0.116130,0.000016,-0.000007
112,0.955111,-0.115120,0.000072,0.000073
113,0.955482,-0.114462,0.000014,0.000093
114,0.952883,-0.116773,0.000004,-0.000063
115,0.952741,-0.116376,0.000065,0.000106
116,0.953937,-0.115879,-0.000073,0.000050
117,0.952302,-0.115572,-0.000024,-0.000012
118,0.953513,-0.114871,-0.000025,-0.000117
119,0.954144,-0.114918,0.000057,0.000047
120,0.955168,-0.114610,-0.000081,-0.000072
121,0.956150,-0.114949,-0.000068,0.000003
122,0.954080,-0.114801,0.000039,-0.000039
123,0.954270,-0.114542,-0.000018,-0.000003
124,0.954985,-0.114557,0.000077,0.000012
125,0.954417,-0.114213,0.000023,0.000054
126,0.952025,-0.116074,-0.000005,-0.000096
127,0.955035,-0.114424,0.000002,-0.000014
128,0.953759,-0.116341,0.000015,0.000004
129,0.953250,-0.115792,0.000096,0.000041
130,0.951726,-0.116604,0.000021,0.000056
131,0.956540,-0.113996,-0.000033,0.000036
132,0.951955,-0.116414,0.000012,-0.000093
133,0.955821,-0.114180,-0.000011,-0.000013
134,0.956095,-0.113620,0.000039,-0.000000
135,0.953342,-0.117025,0.000101,0.000045
136,0.953271,-0.116563,-0.000021,-0.000006
137,0.952276,-0.117372,0.000045,0.000073
138,0.952760,-0.116774,0.000007,-0.000003
139,0.952029,-0.117243,0.000023,0.000068
140,0.955032,-0.115324,-0.000027,-0.000034
141,0.952607,-0.117267,0.000017,0.000022
142,0.951903,-0.116113,0.000076,0.000027
143,0.953651,-0.117166,-0.000030,0.000007
144,0.956224,-0.114224,-0.000038,0.000007
145,0.956472,-0.114526,0.000075,0.000008
146,0.954399,-0.114877,-0.000007,-0.000026
147,0.954157,-0.114903,-0.000075,0.000044
148,0.954693,-0.116078,-0.000007,0.000002
149,0.953299,-0.116627,-0.000012,0.000055
150,0.952744,-0.116068,-0.000040,0.000036
151,0.955639,-0.115135,-0.000033,-0.000036
152,0.955629,-0.114685,-0.000038,0.000038
153,0.954965,-0.114615,0.000023,-0.000010
154,0.954973,-0.114894,0.000060,-0.000042
155,0.952835,-0.116261,-0.000069,-0.000012
156,0.954597,-0.114533,-0.000028,0.000052
157,0.955917,-0.114144,-0.000041,-0.000022
158,0.954588,-0.114811,0.000016,0.000038
159,0.953300,-0.116923,-0.000072,0.000061
160,0.956055,-0.113733,0.000041,-0.000018
161,0.954927,-0.115367,-0.000032,0.000003
162,0.952614,-0.117014,0.000082,-0.000039
163,0.956985,-0.114231,0.000019,0.000076
164,0.954194,-0.115472,0.000044,0.000045
165,0.955892,-0.114500,0.000001,0.000017
166,0.956543,-0.113100,-0.000038,0.000027
167,0.952814,-0.116898,-0.000111,0.000026
168,0.953654,-0.114853,-0.000029,-0.000039
169,0.955463,-0.114753,-0.000051,0.000076
170,0.955567,-0.114909,-0.000063,-0.000064
171,0.952458,-0.117218,0.000026,0.000044
172,0.952074,-0.116199,-0.000038,-0.000061
173,0.954647,-0.114681,0.000027,0.000085
174,0.952177,-0.116507,0.000015,-0.000047
175,0.952345,-0.116991,-0.000009,-0.000055
176,0.953791,-0.115195,-0.000026,-0.000036
177,0.951841,-0.116620,-0.000023,-0.000036
178,0.953165,-0.116225,0.000021,0.000007
179,0.955083,-0.114802,-0.000027,0.000040
180,0.955772,-0.113899,-0.000101,-0.000003
181,0.953210,-0.117448,-0.000014,0.000061
182,0.953442,-0.116566,-0.000008,0.000009
183,0.954051,-0.115455,0.000013,-0.000113
184,0.954951,-0.114374,0.000016,0.000071
185,0.954266,-0.115092,0.000013,0.000004
186,0.953238,-0.116542,0.000049,-0.000026
187,0.954036,-0.115063,-0.000018,-0.000013
188,0.953479,-0.116068,0.000143,-0.000027
189,0.957697,-0.114646,-0.000018,-0.000039
190,0.953537,-0.115954,-0.000092,0.000016
191,0.956393,-0.114639,-0.000071,0.000025
